1
Lattice="20.0 0.0 0.0 0.0 20.0 0.0 0.0 0.0 20.0" Properties=species:S:1:pos:R:3:forces:R:3 energy=1.0597118 stress="5.380805017423957e-08 0.0 -0.0 0.0 5.380805017423957e-08 -0.0 -0.0 -0.0 5.380805017423957e-08" free_energy=0.98257647 pbc="T T T"
Al      10.00000000      10.00000000      10.00000000       0.00000000       0.00000000       0.00000000
