4
Lattice="3.322129 0.0 0.0 0.0 4.57933 0.0 0.0 0.0 30.169808" Properties=species:S:1:pos:R:3:forces:R:3 energy=-15.39846788 stress="-2.09428595851347e-05 -0.0 -0.0 -0.0 -1.4693386293606814e-05 0.0 -0.0 0.0 1.9740270572796016e-06" free_energy=-15.39849102 pbc="T T T"
P        0.00000000       1.89265999      29.10427072       0.00000000      -0.00070245      -0.00128551
P        0.00000000       2.68667001       1.06553728      -0.00000000       0.00070245       0.00128551
P        1.66106450       4.18232499       1.06553728      -0.00000000      -0.00070245       0.00128551
P        1.66106450       0.39700501      29.10427072      -0.00000000       0.00070245      -0.00128551
4
Lattice="3.37196093 0.0 0.0 0.0 4.57933 0.0 0.0 0.0 30.169808" Properties=species:S:1:pos:R:3:forces:R:3 energy=-15.38597406 stress="0.0030727507979374956 -0.0 -0.0 -0.0 0.0008969121826796289 0.0 -0.0 0.0 0.00018119244547148996" free_energy=-15.38598214 pbc="T T T"
P        0.00000000       1.89265999      29.10427072      -0.00000000      -0.04557758       0.01832028
P        0.00000000       2.68667001       1.06553728      -0.00000000       0.04557758      -0.01832028
P        1.68598047       4.18232499       1.06553728      -0.00000000      -0.04557758      -0.01832028
P        1.68598047       0.39700501      29.10427072       0.00000000       0.04557758       0.01832028
4
Lattice="3.27229707 0.0 0.0 0.0 4.57933 0.0 0.0 0.0 30.169808" Properties=species:S:1:pos:R:3:forces:R:3 energy=-15.38853272 stress="-0.003516822338342787 -0.0 -0.0 -0.0 -0.0010405119812368691 0.0 -0.0 0.0 -0.00018436047322455102" free_energy=-15.38859346 pbc="T T T"
P        0.00000000       1.89265999      29.10427072       0.00000000       0.05680305      -0.02099343
P        0.00000000       2.68667001       1.06553728      -0.00000000      -0.05680305       0.02099343
P        1.63614854       4.18232499       1.06553728       0.00000000       0.05680305       0.02099343
P        1.63614854       0.39700501      29.10427072      -0.00000000      -0.05680305      -0.02099343
4
Lattice="3.322129 0.0 0.0 0.0 4.64801995 0.0 0.0 0.0 30.169808" Properties=species:S:1:pos:R:3:forces:R:3 energy=-15.39003031 stress="0.0008661488514962109 -0.0 -0.0 -0.0 0.0021249118766319725 -0.0 -0.0 -0.0 0.00031702228918206423" free_energy=-15.39003724 pbc="T T T"
P        0.00000000       1.92104989      29.10427072       0.00000000      -0.19935583       0.03313465
P        0.00000000       2.72697006       1.06553728       0.00000000       0.19935583      -0.03313465
P        1.66106450       4.24505986       1.06553728       0.00000000      -0.19935583      -0.03313465
P        1.66106450       0.40296009      29.10427072       0.00000000       0.19935583       0.03313465
4
Lattice="3.322129 0.0 0.0 0.0 4.51064005 0.0 0.0 0.0 30.169808" Properties=species:S:1:pos:R:3:forces:R:3 energy=-15.39190702 stress="-0.0010723317190473886 -0.0 -0.0 -0.0 -0.002245508986520845 0.0 -0.0 0.0 -0.00032300855179224445" free_energy=-15.39197696 pbc="T T T"
P        0.00000000       1.86427009      29.10427072      -0.00000000       0.20625791      -0.03583792
P        0.00000000       2.64636996       1.06553728       0.00000000      -0.20625791       0.03583792
P        1.66106450       4.11959011       1.06553728       0.00000000       0.20625791       0.03583792
P        1.66106450       0.39104994      29.10427072       0.00000000      -0.20625791      -0.03583792
4
Lattice="3.322129 0.0 0.0 0.0 4.57933 0.0 0.0 0.0 30.62235512" Properties=species:S:1:pos:R:3:forces:R:3 energy=-15.39073841 stress="0.00016575471552405767 -0.0 -0.0 -0.0 0.0002823510929613485 -0.0 -0.0 -0.0 0.0019172909216876274" free_energy=-15.39084169 pbc="T T T"
P        0.00000000       1.89265999      29.54083478       0.00000000       0.03464623       0.20473213
P        0.00000000       2.68667001       1.08152034       0.00000000      -0.03464623      -0.20473213
P        1.66106450       4.18232499       1.08152034       0.00000000       0.03464623      -0.20473213
P        1.66106450       0.39700501      29.54083478       0.00000000      -0.03464623       0.20473213
4
Lattice="3.322129 0.0 0.0 0.0 4.57933 0.0 0.0 0.0 29.71726088" Properties=species:S:1:pos:R:3:forces:R:3 energy=-15.39212927 stress="-0.0002005604786815274 -0.0 -0.0 -0.0 -0.00036245331036601777 0.0 -0.0 0.0 -0.002197152719805809" free_energy=-15.39213324 pbc="T T T"
P        0.00000000       1.89265999      28.66770666       0.00000000      -0.04955699      -0.23786356
P        0.00000000       2.68667001       1.04955422      -0.00000000       0.04955699       0.23786356
P        1.66106450       4.18232499       1.04955422       0.00000000      -0.04955699       0.23786356
P        1.66106450       0.39700501      28.66770666      -0.00000000       0.04955699      -0.23786356
4
Lattice="3.322129 0.04983193 0.0 0.0 4.57933 0.0 0.0 0.0 30.169808" Properties=species:S:1:pos:R:3:forces:R:3 energy=-15.39259961 stress="-8.713141122374814e-05 0.0017235646208725406 -0.0 0.0017235646208725406 -4.804955271508104e-05 -0.0 -0.0 -0.0 2.427191827364356e-06" free_energy=-15.39262306 pbc="T T T"
P        0.00000000       1.89265999      29.10427072      -0.17596561       0.00527343      -0.00121523
P        0.00000000       2.68667001       1.06553728       0.17596561      -0.00527343       0.00121523
P        1.66106450       4.20724095       1.06553728      -0.17596561       0.00527343       0.00121523
P        1.66106450       0.42192098      29.10427072       0.17596561      -0.00527343      -0.00121523
4
Lattice="3.322129 -0.04983193 0.0 0.0 4.57933 0.0 0.0 0.0 30.169808" Properties=species:S:1:pos:R:3:forces:R:3 energy=-15.39260362 stress="-8.711663757164718e-05 -0.0017235914031881999 -0.0 -0.0017235914031881999 -4.7961859511862376e-05 -0.0 -0.0 -0.0 2.5135555891392024e-06" free_energy=-15.39262794 pbc="T T T"
P        0.00000000       1.89265999      29.10427072       0.17597761       0.00528503      -0.00124508
P        0.00000000       2.68667001       1.06553728      -0.17597761      -0.00528503       0.00124508
P        1.66106450       4.15740902       1.06553728       0.17597761       0.00528503       0.00124508
P        1.66106450       0.37208905      29.10427072      -0.17597761      -0.00528503      -0.00124508
4
Lattice="3.322129 0.0 0.0 0.0 4.57933 0.06868995 0.0 0.0 30.169808" Properties=species:S:1:pos:R:3:forces:R:3 energy=-15.39567282 stress="-2.2494224127427736e-05 -0.0 -0.0 -0.0 -1.807311355319959e-05 0.0008178228311343988 -0.0 0.0008178228311343988 -6.381100477483638e-06" free_energy=-15.39569611 pbc="T T T"
P        0.00000000       1.89265999      29.13266062      -0.00000000       0.08557861      -0.01807560
P        0.00000000       2.68667001       1.10583733       0.00000000      -0.08557861       0.01807560
P        1.66106450       4.18232499       1.12827215      -0.00000000      -0.09027679      -0.01112104
P        1.66106450       0.39700501      29.11022580       0.00000000       0.09027679       0.01112104
4
Lattice="3.322129 0.0 0.0 0.0 4.57933 -0.06868995 0.0 0.0 30.169808" Properties=species:S:1:pos:R:3:forces:R:3 energy=-15.39566531 stress="-2.240794150527153e-05 -0.0 -0.0 -0.0 -1.810008935564166e-05 -0.0008176789955565929 -0.0 -0.0008176789955565929 -6.1889743435707e-06" free_energy=-15.3956884 pbc="T T T"
P        0.00000000       1.89265999      29.07588082       0.00000000      -0.09020451       0.01119170
P        0.00000000       2.68667001       1.02523723       0.00000000       0.09020451      -0.01119170
P        1.66106450       4.18232499       1.00280240       0.00000000       0.08557680       0.01802431
P        1.66106450       0.39700501      29.09831565      -0.00000000      -0.08557680      -0.01802431
4
Lattice="3.322129 0.0 0.0 0.0 4.57933 0.0 0.45254712 0.0 30.169808" Properties=species:S:1:pos:R:3:forces:R:3 energy=-15.39638939 stress="-1.213841204990825e-05 -0.0 0.0006030781047831902 -0.0 -1.98841311166385e-05 -0.0 0.0006030781047831902 -0.0 2.298960022373084e-06" free_energy=-15.39641314 pbc="T T T"
P        0.43656406       1.89265999      29.10427072       0.06478014      -0.00032057      -0.00112097
P        0.01598306       2.68667001       1.06553728      -0.06478014       0.00032057       0.00112097
P        1.67704756       4.18232499       1.06553728      -0.06478014      -0.00032057       0.00112097
P        2.09762856       0.39700501      29.10427072       0.06478014       0.00032057      -0.00112097
4
Lattice="3.322129 0.0 0.0 0.0 4.57933 0.0 -0.45254712 0.0 30.169808" Properties=species:S:1:pos:R:3:forces:R:3 energy=-15.39639446 stress="-1.2163434259993916e-05 -0.0 -0.0006031973051244763 -0.0 -1.9864370498745953e-05 -0.0 -0.0006031973051244763 -0.0 2.280048249721658e-06" free_energy=-15.39641825 pbc="T T T"
P       -0.43656406       1.89265999      29.10427072      -0.06477934      -0.00032946      -0.00116260
P       -0.01598306       2.68667001       1.06553728       0.06477934       0.00032946       0.00116260
P        1.64508144       4.18232499       1.06553728       0.06477934      -0.00032946       0.00116260
P        1.22450044       0.39700501      29.10427072      -0.06477934       0.00032946      -0.00116260
4
Lattice="3.322129 0.0 0.0 0.0 4.57933 0.0 0.0 0.0 30.169808" Properties=species:S:1:pos:R:3:forces:R:3 energy=-15.39730221 stress="-2.768506881460544e-05 0.0003832559419656213 -0.00014119367806468495 0.0003832559419656213 -2.526832527351781e-05 7.822358557286971e-07 -0.00014119367806468495 7.822358557286971e-07 1.9211365089468668e-06" free_energy=-15.39732879 pbc="T T T"
P        0.01500001       1.89265999      29.10427072      -0.15730625       0.00249712      -0.00139151
P        0.00000000       2.68667001       1.06553728       0.01787692       0.00064734       0.00125774
P        1.66106450       4.18232499       1.06553728       0.01246966      -0.00080757       0.00134682
P        1.66106450       0.39700501      29.10427072       0.12695967      -0.00233690      -0.00121305
4
Lattice="3.322129 0.0 0.0 0.0 4.57933 0.0 0.0 0.0 30.169808" Properties=species:S:1:pos:R:3:forces:R:3 energy=-15.39731053 stress="-2.7798283548639836e-05 -0.0003832538573015733 0.000141188822170585 -0.0003832538573015733 -2.5446651430753422e-05 7.819612293271582e-07 0.000141188822170585 7.819612293271582e-07 1.4985738581063185e-06" free_energy=-15.39733387 pbc="T T T"
P       -0.01500001       1.89265999      29.10427072       0.15730550       0.00242532      -0.00151787
P        0.00000000       2.68667001       1.06553728      -0.01788318       0.00071260       0.00138570
P        1.66106450       4.18232499       1.06553728      -0.01245750      -0.00088007       0.00147219
P        1.66106450       0.39700501      29.10427072      -0.12696482      -0.00225785      -0.00134002
4
Lattice="3.322129 0.0 0.0 0.0 4.57933 0.0 0.0 0.0 30.169808" Properties=species:S:1:pos:R:3:forces:R:3 energy=-15.39697586 stress="7.986539582390591e-05 -0.0 -0.0 -0.0 0.00042489915354031367 -0.00019157146347993946 -0.0 -0.00019157146347993946 -9.010369276760327e-05" free_energy=-15.39699291 pbc="T T T"
P        0.00000000       1.90765999      29.10427072       0.00000000      -0.18665176      -0.00795572
P        0.00000000       2.68667001       1.06553728       0.00000000       0.01291407       0.00781217
P        1.66106450       4.18232499       1.06553728       0.00000000       0.02837637       0.01466320
P        1.66106450       0.39700501      29.10427072       0.00000000       0.14536132      -0.01451965
4
Lattice="3.322129 0.0 0.0 0.0 4.57933 0.0 0.0 0.0 30.169808" Properties=species:S:1:pos:R:3:forces:R:3 energy=-15.39713921 stress="-0.00014214213779145419 -0.0 -0.0 -0.0 -0.00045905907029947343 0.00019144218310141505 -0.0 0.00019144218310141505 9.349458608702227e-05" free_energy=-15.39717024 pbc="T T T"
P        0.00000000       1.87765998      29.10427072       0.00000000       0.18988457       0.00499315
P        0.00000000       2.68667001       1.06553728       0.00000000      -0.01156568      -0.00513814
P        1.66106450       4.18232499       1.06553728       0.00000000      -0.02971066      -0.01195413
P        1.66106450       0.39700501      29.10427072       0.00000000      -0.14860824       0.01209913
4
Lattice="3.322129 0.0 0.0 0.0 4.57933 0.0 0.0 0.0 30.169808" Properties=species:S:1:pos:R:3:forces:R:3 energy=-15.39766815 stress="-6.195026734970069e-05 -0.0 -0.0 -0.0 -8.778507823299278e-05 2.67728722558576e-05 -0.0 2.67728722558576e-05 -0.000490370599470927" free_energy=-15.39768379 pbc="T T T"
P        0.00000000       1.89265999      29.11927085       0.00000000      -0.00880583      -0.13766480
P        0.00000000       2.68667001       1.06553728       0.00000000       0.00849668       0.12212892
P        1.66106450       4.18232499       1.06553728       0.00000000      -0.01422113      -0.01261127
P        1.66106450       0.39700501      29.10427072       0.00000000       0.01453028       0.02814715
4
Lattice="3.322129 0.0 0.0 0.0 4.57933 0.0 0.0 0.0 30.169808" Properties=species:S:1:pos:R:3:forces:R:3 energy=-15.39726814 stress="2.3472917724402736e-05 -0.0 -0.0 -0.0 6.218549110412784e-05 -3.6566174564915984e-05 -0.0 -3.6566174564915984e-05 0.00047211288080231114" free_energy=-15.39730174 pbc="T T T"
P        0.00000000       1.89265999      29.08927059       0.00000000       0.00406822       0.12966150
P        0.00000000       2.68667001       1.06553728       0.00000000      -0.00438164      -0.11334772
P        1.66106450       4.18232499       1.06553728       0.00000000       0.01227866       0.01490770
P        1.66106450       0.39700501      29.10427072       0.00000000      -0.01196524      -0.03122148
