4
Lattice="3.414865 0.0 0.0 0.0 3.871944 0.0 0.0 0.0 5.146146" Properties=species:S:1:pos:R:3:forces:R:3 energy=-15.58279075 stress="0.0015831420188452672 -0.0 -0.0 -0.0 0.001123817403540033 0.0 -0.0 0.0 -0.0028697112667292767" free_energy=-15.58713457 pbc="T T T"
P        0.00000000       2.15885271       1.28653650       0.00000000       0.01045133       0.00000000
P        1.70743250       3.64906329       1.28653650      -0.00000000      -0.01045133      -0.00000000
P        1.70743250       0.22288071       3.85960950       0.00000000       0.01045133       0.00000000
P        0.00000000       1.71309129       3.85960950       0.00000000      -0.01045133      -0.00000000
4
Lattice="3.46608797 0.0 0.0 0.0 3.871944 0.0 0.0 0.0 5.146146" Properties=species:S:1:pos:R:3:forces:R:3 energy=-15.56929534 stress="0.021073642975230213 -0.0 -0.0 -0.0 0.008345577382925198 -0.0 -0.0 -0.0 -0.001327198857101186" free_energy=-15.57389055 pbc="T T T"
P        0.00000000       2.15885271       1.28653650       0.00000000       0.06051574       0.00000000
P        1.73304398       3.64906329       1.28653650       0.00000000      -0.06051574      -0.00000000
P        1.73304398       0.22288071       3.85960950      -0.00000000       0.06051574       0.00000000
P        0.00000000       1.71309129       3.85960950      -0.00000000      -0.06051574      -0.00000000
4
Lattice="3.36364202 0.0 0.0 0.0 3.871944 0.0 0.0 0.0 5.146146" Properties=species:S:1:pos:R:3:forces:R:3 energy=-15.57513601 stress="-0.020334080217531032 -0.0 -0.0 -0.0 -0.0070976459351415845 0.0 -0.0 0.0 -0.003992014061974259" free_energy=-15.57935576 pbc="T T T"
P        0.00000000       2.15885271       1.28653650       0.00000000      -0.04484736      -0.00000000
P        1.68182101       3.64906329       1.28653650       0.00000000       0.04484736       0.00000000
P        1.68182101       0.22288071       3.85960950      -0.00000000      -0.04484736       0.00000000
P        0.00000000       1.71309129       3.85960950       0.00000000       0.04484736      -0.00000000
4
Lattice="3.414865 0.0 0.0 0.0 3.93002316 0.0 0.0 0.0 5.146146" Properties=species:S:1:pos:R:3:forces:R:3 energy=-15.57458013 stress="0.008853195450397625 -0.0 -0.0 -0.0 0.014070758533939532 0.0 -0.0 0.0 -0.002810002581208555" free_energy=-15.57880699 pbc="T T T"
P        0.00000000       2.19123550       1.28653650       0.00000000       0.20245969      -0.00000000
P        1.70743250       3.70379924       1.28653650       0.00000000      -0.20245969       0.00000000
P        1.70743250       0.22622392       3.85960950      -0.00000000       0.20245969      -0.00000000
P        0.00000000       1.73878766       3.85960950      -0.00000000      -0.20245969       0.00000000
4
Lattice="3.414865 0.0 0.0 0.0 3.81386484 0.0 0.0 0.0 5.146146" Properties=species:S:1:pos:R:3:forces:R:3 energy=-15.57703381 stress="-0.006557474683879746 -0.0 -0.0 -0.0 -0.013293915585514455 -0.0 -0.0 -0.0 -0.002056811600680174" free_energy=-15.5815173 pbc="T T T"
P        0.00000000       2.12646992       1.28653650      -0.00000000      -0.18968988       0.00000000
P        1.70743250       3.59432734       1.28653650       0.00000000       0.18968988       0.00000000
P        1.70743250       0.21953750       3.85960950       0.00000000      -0.18968988       0.00000000
P        0.00000000       1.68739492       3.85960950       0.00000000       0.18968988      -0.00000000
4
Lattice="3.414865 0.0 0.0 0.0 3.871944 0.0 0.0 0.0 5.22333819" Properties=species:S:1:pos:R:3:forces:R:3 energy=-15.57455215 stress="0.002668610554225359 -0.0 -0.0 -0.0 0.0003365668697192364 0.0 -0.0 0.0 0.01742469016684331" free_energy=-15.57861476 pbc="T T T"
P        0.00000000       2.15885271       1.30583455       0.00000000       0.05622824       0.00000000
P        1.70743250       3.64906329       1.30583455       0.00000000      -0.05622824      -0.00000000
P        1.70743250       0.22288071       3.91750364      -0.00000000       0.05622824       0.00000000
P        0.00000000       1.71309129       3.91750364       0.00000000      -0.05622824      -0.00000000
4
Lattice="3.414865 0.0 0.0 0.0 3.871944 0.0 0.0 0.0 5.06895381" Properties=species:S:1:pos:R:3:forces:R:3 energy=-15.56932249 stress="0.00014511675365972237 -0.0 -0.0 -0.0 0.00107390401761129 -0.0 -0.0 -0.0 -0.0243829907532252" free_energy=-15.57420884 pbc="T T T"
P        0.00000000       2.15885271       1.26723845      -0.00000000      -0.03740349      -0.00000000
P        1.70743250       3.64906329       1.26723845       0.00000000       0.03740349      -0.00000000
P        1.70743250       0.22288071       3.80171536      -0.00000000      -0.03740349       0.00000000
P        0.00000000       1.71309129       3.80171536       0.00000000       0.03740349      -0.00000000
4
Lattice="3.414865 0.05122297 0.0 0.0 3.871944 0.0 0.0 0.0 5.146146" Properties=species:S:1:pos:R:3:forces:R:3 energy=-15.57695096 stress="0.0010916843107638486 0.011779912236252748 -0.0 0.011779912236252748 0.0008153454326076259 -0.0 -0.0 -0.0 -0.0027036632502083755" free_energy=-15.581195 pbc="T T T"
P        0.00000000       2.15885271       1.28653650       0.09750227       0.00616596       0.00000000
P        1.70743250       3.67467477       1.28653650      -0.09750227      -0.00616596       0.00000000
P        1.70743250       0.24849220       3.85960950       0.09750227       0.00616596       0.00000000
P        0.00000000       1.71309129       3.85960950      -0.09750227      -0.00616596       0.00000000
4
Lattice="3.414865 -0.05122297 0.0 0.0 3.871944 0.0 0.0 0.0 5.146146" Properties=species:S:1:pos:R:3:forces:R:3 energy=-15.5769509 stress="0.0010916697680475854 -0.011779707102813819 -0.0 -0.011779707102813819 0.0008153281561103653 -0.0 -0.0 -0.0 -0.002703687791822259" free_energy=-15.58119495 pbc="T T T"
P        0.00000000       2.15885271       1.28653650      -0.09750261       0.00616553       0.00000000
P        1.70743250       3.62345180       1.28653650       0.09750261      -0.00616553       0.00000000
P        1.70743250       0.19726923       3.85960950      -0.09750261       0.00616553       0.00000000
P        0.00000000       1.71309129       3.85960950       0.09750261      -0.00616553       0.00000000
4
Lattice="3.414865 0.0 0.0 0.0 3.871944 0.05807916 0.0 0.0 5.146146" Properties=species:S:1:pos:R:3:forces:R:3 energy=-15.5801825 stress="0.001517675890680429 -0.0 -0.0 -0.0 0.0009743261571377438 0.005081549302557393 -0.0 0.005081549302557393 -0.002784679717628295" free_energy=-15.58456945 pbc="T T T"
P        0.00000000       2.15885271       1.31891929       0.00000000       0.01209190       0.08326314
P        1.70743250       3.64906329       1.34127245       0.00000000      -0.01209190      -0.08326314
P        1.70743250       0.22288071       3.86295271      -0.00000000       0.01209190       0.08326314
P        0.00000000       1.71309129       3.88530587      -0.00000000      -0.01209190      -0.08326314
4
Lattice="3.414865 0.0 0.0 0.0 3.871944 -0.05807916 0.0 0.0 5.146146" Properties=species:S:1:pos:R:3:forces:R:3 energy=-15.58018252 stress="0.001517679105057629 -0.0 -0.0 -0.0 0.0009743176000287323 -0.0050815614235681155 -0.0 -0.0050815614235681155 -0.0027846727333795834" free_energy=-15.58456947 pbc="T T T"
P        0.00000000       2.15885271       1.25415371       0.00000000       0.01209148      -0.08325716
P        1.70743250       3.64906329       1.23180055       0.00000000      -0.01209148       0.08325716
P        1.70743250       0.22288071       3.85626629      -0.00000000       0.01209148      -0.08325716
P        0.00000000       1.71309129       3.83391313       0.00000000      -0.01209148       0.08325716
4
Lattice="3.414865 0.0 0.0 0.0 3.871944 0.0 0.07719219 0.0 5.146146" Properties=species:S:1:pos:R:3:forces:R:3 energy=-15.58135714 stress="0.00167919320820987 -0.0 0.0036921698289707062 -0.0 0.0011578160459448893 -0.0 0.0036921698289707062 -0.0 -0.002861995619253515" free_energy=-15.58529927 pbc="T T T"
P        0.01929805       2.15885271       1.28653650       0.00000000       0.01086361       0.00000000
P        1.72673055       3.64906329       1.28653650      -0.00000000      -0.01086361      -0.00000000
P        1.76532664       0.22288071       3.85960950       0.00000000       0.01086361      -0.00000000
P        0.05789414       1.71309129       3.85960950      -0.00000000      -0.01086361       0.00000000
4
Lattice="3.414865 0.0 0.0 0.0 3.871944 0.0 -0.07719219 0.0 5.146146" Properties=species:S:1:pos:R:3:forces:R:3 energy=-15.58135715 stress="0.0016791754199088611 -0.0 -0.0036921735489101456 -0.0 0.00115778312198425 -0.0 -0.0036921735489101456 -0.0 -0.002861978910733585" free_energy=-15.58529928 pbc="T T T"
P       -0.01929805       2.15885271       1.28653650      -0.00000000       0.01086452      -0.00000000
P        1.68813445       3.64906329       1.28653650       0.00000000      -0.01086452      -0.00000000
P        1.64953836       0.22288071       3.85960950      -0.00000000       0.01086452       0.00000000
P       -0.05789414       1.71309129       3.85960950       0.00000000      -0.01086452       0.00000000
4
Lattice="3.414865 0.0 0.0 0.0 3.871944 0.0 0.0 0.0 5.146146" Properties=species:S:1:pos:R:3:forces:R:3 energy=-15.58194836 stress="0.0015197025024520942 -0.0014348651953566193 -0.0 -0.0014348651953566193 0.0010713290143648064 -0.0 -0.0 -0.0 -0.0028821828879853797" free_energy=-15.58628323 pbc="T T T"
P        0.01500000       2.15885271       1.28653650      -0.11519842       0.00748596       0.00000000
P        1.70743250       3.64906329       1.28653650       0.08757582      -0.00750446       0.00000000
P        1.70743250       0.22288071       3.85960950       0.00769710       0.01043428       0.00000000
P        0.00000000       1.71309129       3.85960950       0.01992550      -0.01041578       0.00000000
4
Lattice="3.414865 0.0 0.0 0.0 3.871944 0.0 0.0 0.0 5.146146" Properties=species:S:1:pos:R:3:forces:R:3 energy=-15.58194837 stress="0.0015197199911606651 0.0014346916439538651 -0.0 0.0014346916439538651 0.0010713376026813637 -0.0 -0.0 -0.0 -0.00288221780298743" free_energy=-15.58628325 pbc="T T T"
P       -0.01500000       2.15885271       1.28653650       0.11519364       0.00748639       0.00000000
P        1.70743250       3.64906329       1.28653650      -0.08757169      -0.00750476       0.00000000
P        1.70743250       0.22288071       3.85960950      -0.00769320       0.01043415       0.00000000
P        0.00000000       1.71309129       3.85960950      -0.01992875      -0.01041578       0.00000000
4
Lattice="3.414865 0.0 0.0 0.0 3.871944 0.0 0.0 0.0 5.146146" Properties=species:S:1:pos:R:3:forces:R:3 energy=-15.58213827 stress="0.0007558856522293351 -0.0 -0.0 -0.0 -0.0017855969141351736 -0.0 -0.0 -0.0 -0.003526766991006639" free_energy=-15.58640081 pbc="T T T"
P        0.00000000       2.17385270       1.28653650       0.00000000      -0.15621537       0.00000000
P        1.70743250       3.64906329       1.28653650       0.00000000       0.12972881       0.00000000
P        1.70743250       0.22288071       3.85960950       0.00000000       0.02347054       0.00000000
P        0.00000000       1.71309129       3.85960950       0.00000000       0.00301602       0.00000000
4
Lattice="3.414865 0.0 0.0 0.0 3.871944 0.0 0.0 0.0 5.146146" Properties=species:S:1:pos:R:3:forces:R:3 energy=-15.58098827 stress="0.002276753007529593 -0.0 -0.0 -0.0 0.003990592458406693 -0.0 -0.0 -0.0 -0.002148023492117605" free_energy=-15.58541719 pbc="T T T"
P        0.00000000       2.14385272       1.28653650       0.00000000       0.17078374       0.00000000
P        1.70743250       3.64906329       1.28653650       0.00000000      -0.14413841       0.00000000
P        1.70743250       0.22288071       3.85960950       0.00000000      -0.00258507       0.00000000
P        0.00000000       1.71309129       3.85960950       0.00000000      -0.02406026       0.00000000
4
Lattice="3.414865 0.0 0.0 0.0 3.871944 0.0 0.0 0.0 5.146146" Properties=species:S:1:pos:R:3:forces:R:3 energy=-15.5827873 stress="0.0015667543312088755 -0.0 -0.0 -0.0 0.001119640142485844 -0.0012187608311404466 -0.0 -0.0012187608311404466 -0.0028958742624039173" free_energy=-15.58710309 pbc="T T T"
P        0.00000000       2.15885271       1.30153649       0.00000000       0.00985148      -0.00476957
P        1.70743250       3.64906329       1.28653650       0.00000000      -0.01013075       0.03481232
P        1.70743250       0.22288071       3.85960950       0.00000000       0.00988440      -0.00325493
P        0.00000000       1.71309129       3.85960950       0.00000000      -0.00960514      -0.02678782
4
Lattice="3.414865 0.0 0.0 0.0 3.871944 0.0 0.0 0.0 5.146146" Properties=species:S:1:pos:R:3:forces:R:3 energy=-15.58278731 stress="0.001566780976211334 -0.0 -0.0 -0.0 0.0011196526879191872 0.0012189206075325601 -0.0 0.0012189206075325601 -0.0028958372315302733" free_energy=-15.5871031 pbc="T T T"
P        0.00000000       2.15885271       1.27153651       0.00000000       0.00985143       0.00477780
P        1.70743250       3.64906329       1.28653650       0.00000000      -0.01013083      -0.03480447
P        1.70743250       0.22288071       3.85960950       0.00000000       0.00988416       0.00324489
P        0.00000000       1.71309129       3.85960950       0.00000000      -0.00960476       0.02678178
