4
Lattice="3.414865 0.0 0.0 0.0 3.871943 0.0 0.0 0.0 5.146146" Properties=species:S:1:pos:R:3:forces:R:3 energy=-15.58279077 stress="0.001583009567780107 -0.0 -0.0 -0.0 0.0011235816617403483 -0.0 -0.0 -0.0 -0.002869704788042804" free_energy=-15.5871346 pbc="T T T"
P        0.00000000       2.15885215       1.28653650      -0.00000000       0.01044795      -0.00000000
P        1.70743250       3.64906235       1.28653650       0.00000000      -0.01044795       0.00000000
P        1.70743250       0.22288065       3.85960950      -0.00000000       0.01044795       0.00000000
P        0.00000000       1.71309085       3.85960950       0.00000000      -0.01044795       0.00000000
4
Lattice="3.46608797 0.0 0.0 0.0 3.871943 0.0 0.0 0.0 5.146146" Properties=species:S:1:pos:R:3:forces:R:3 energy=-15.56929549 stress="0.021073528268775496 -0.0 -0.0 -0.0 0.008345356433502142 -0.0 -0.0 -0.0 -0.0013271916107090909" free_energy=-15.57389071 pbc="T T T"
P        0.00000000       2.15885215       1.28653650       0.00000000       0.06051257      -0.00000000
P        1.73304398       3.64906235       1.28653650      -0.00000000      -0.06051257       0.00000000
P        1.73304398       0.22288065       3.85960950      -0.00000000       0.06051257      -0.00000000
P        0.00000000       1.71309085       3.85960950      -0.00000000      -0.06051257       0.00000000
4
Lattice="3.36364202 0.0 0.0 0.0 3.871943 0.0 0.0 0.0 5.146146" Properties=species:S:1:pos:R:3:forces:R:3 energy=-15.5751359 stress="-0.020334232229485796 -0.0 -0.0 -0.0 -0.0070978963257631875 -0.0 -0.0 -0.0 -0.003992008875280176" free_energy=-15.57935565 pbc="T T T"
P        0.00000000       2.15885215       1.28653650       0.00000000      -0.04485097      -0.00000000
P        1.68182101       3.64906235       1.28653650      -0.00000000       0.04485097       0.00000000
P        1.68182101       0.22288065       3.85960950       0.00000000      -0.04485097       0.00000000
P        0.00000000       1.71309085       3.85960950       0.00000000       0.04485097       0.00000000
4
Lattice="3.414865 0.0 0.0 0.0 3.93002214 0.0 0.0 0.0 5.146146" Properties=species:S:1:pos:R:3:forces:R:3 energy=-15.57458039 stress="0.008853076324954448 -0.0 -0.0 -0.0 0.01407054448138406 0.0 -0.0 0.0 -0.0028100108262421107" free_energy=-15.57880725 pbc="T T T"
P        0.00000000       2.19123493       1.28653650      -0.00000000       0.20245642      -0.00000000
P        1.70743250       3.70379828       1.28653650      -0.00000000      -0.20245642      -0.00000000
P        1.70743250       0.22622386       3.85960950       0.00000000       0.20245642       0.00000000
P        0.00000000       1.73878721       3.85960950      -0.00000000      -0.20245642       0.00000000
4
Lattice="3.414865 0.0 0.0 0.0 3.81386385 0.0 0.0 0.0 5.146146" Properties=species:S:1:pos:R:3:forces:R:3 energy=-15.57703359 stress="-0.006557620753917819 -0.0 -0.0 -0.0 -0.013294173066490424 -0.0 -0.0 -0.0 -0.002056791078598168" free_energy=-15.58151708 pbc="T T T"
P        0.00000000       2.12646937       1.28653650      -0.00000000      -0.18969332       0.00000000
P        1.70743250       3.59432641       1.28653650       0.00000000       0.18969332       0.00000000
P        1.70743250       0.21953744       3.85960950      -0.00000000      -0.18969332      -0.00000000
P        0.00000000       1.68739448       3.85960950      -0.00000000       0.18969332      -0.00000000
4
Lattice="3.414865 0.0 0.0 0.0 3.871943 0.0 0.0 0.0 5.22333819" Properties=species:S:1:pos:R:3:forces:R:3 energy=-15.57455217 stress="0.0026684800255450092 -0.0 -0.0 -0.0 0.00033632267691619536 -0.0 -0.0 -0.0 0.017424712193129015" free_energy=-15.57861477 pbc="T T T"
P        0.00000000       2.15885215       1.30583455       0.00000000       0.05622481       0.00000000
P        1.70743250       3.64906235       1.30583455      -0.00000000      -0.05622481       0.00000000
P        1.70743250       0.22288065       3.91750364       0.00000000       0.05622481       0.00000000
P        0.00000000       1.71309085       3.91750364       0.00000000      -0.05622481      -0.00000000
4
Lattice="3.414865 0.0 0.0 0.0 3.871943 0.0 0.0 0.0 5.06895381" Properties=species:S:1:pos:R:3:forces:R:3 energy=-15.56932252 stress="0.00014498008333439292 -0.0 -0.0 -0.0 0.001073680559101565 0.0 -0.0 0.0 -0.02438300643813764" free_energy=-15.57420886 pbc="T T T"
P        0.00000000       2.15885215       1.26723845       0.00000000      -0.03740676       0.00000000
P        1.70743250       3.64906235       1.26723845       0.00000000       0.03740676       0.00000000
P        1.70743250       0.22288065       3.80171536      -0.00000000      -0.03740676      -0.00000000
P        0.00000000       1.71309085       3.80171536      -0.00000000       0.03740676       0.00000000
4
Lattice="3.414865 0.05122297 0.0 0.0 3.871943 0.0 0.0 0.0 5.146146" Properties=species:S:1:pos:R:3:forces:R:3 energy=-15.57695097 stress="0.0010915500434195327 0.011779931921972532 -0.0 0.011779931921972532 0.0008151115944682246 -0.0 -0.0 -0.0 -0.0027036591432953705" free_energy=-15.58119502 pbc="T T T"
P        0.00000000       2.15885215       1.28653650       0.09750241       0.00616259      -0.00000000
P        1.70743250       3.67467383       1.28653650      -0.09750241      -0.00616259      -0.00000000
P        1.70743250       0.24849214       3.85960950       0.09750241       0.00616259      -0.00000000
P        0.00000000       1.71309085       3.85960950      -0.09750241      -0.00616259       0.00000000
4
Lattice="3.414865 -0.05122297 0.0 0.0 3.871943 0.0 0.0 0.0 5.146146" Properties=species:S:1:pos:R:3:forces:R:3 energy=-15.57695092 stress="0.0010915355007032692 -0.011779726726118512 -0.0 -0.011779726726118512 0.0008150940246200353 -0.0 -0.0 -0.0 -0.002703683741082836" free_energy=-15.58119497 pbc="T T T"
P        0.00000000       2.15885215       1.28653650      -0.09750275       0.00616217       0.00000000
P        1.70743250       3.62345086       1.28653650       0.09750275      -0.00616217      -0.00000000
P        1.70743250       0.19726917       3.85960950      -0.09750275       0.00616217      -0.00000000
P        0.00000000       1.71309085       3.85960950       0.09750275      -0.00616217       0.00000000
4
Lattice="3.414865 0.0 0.0 0.0 3.871943 0.05807914 0.0 0.0 5.146146" Properties=species:S:1:pos:R:3:forces:R:3 energy=-15.58018252 stress="0.0015175429465360477 -0.0 -0.0 -0.0 0.0009740915887417749 0.00508155317229305 -0.0 0.00508155317229305 -0.0027846744810021387" free_energy=-15.58456948 pbc="T T T"
P        0.00000000       2.15885215       1.31891928       0.00000000       0.01208853       0.08326309
P        1.70743250       3.64906235       1.34127243      -0.00000000      -0.01208853      -0.08326309
P        1.70743250       0.22288065       3.86295271       0.00000000       0.01208853       0.08326309
P        0.00000000       1.71309085       3.88530586      -0.00000000      -0.01208853      -0.08326309
4
Lattice="3.414865 0.0 0.0 0.0 3.871943 -0.05807914 0.0 0.0 5.146146" Properties=species:S:1:pos:R:3:forces:R:3 energy=-15.58018254 stress="0.00151754642929814 -0.0 -0.0 -0.0 0.0009740827133157977 -0.005081565187198119 -0.0 -0.005081565187198119 -0.002784667346957208" free_energy=-15.58456949 pbc="T T T"
P        0.00000000       2.15885215       1.25415372       0.00000000       0.01208811      -0.08325710
P        1.70743250       3.64906235       1.23180057      -0.00000000      -0.01208811       0.08325710
P        1.70743250       0.22288065       3.85626629       0.00000000       0.01208811      -0.08325710
P        0.00000000       1.71309085       3.83391314      -0.00000000      -0.01208811       0.08325710
4
Lattice="3.414865 0.0 0.0 0.0 3.871943 0.0 0.07719219 0.0 5.146146" Properties=species:S:1:pos:R:3:forces:R:3 energy=-15.58135716 stress="0.001679060132993797 -0.0 0.003692170453121619 -0.0 0.0011575790620848886 -0.0 0.003692170453121619 -0.0 -0.002861988173133128" free_energy=-15.5852993 pbc="T T T"
P        0.01929805       2.15885215       1.28653650       0.00000000       0.01086023       0.00000000
P        1.72673055       3.64906235       1.28653650      -0.00000000      -0.01086023      -0.00000000
P        1.76532664       0.22288065       3.85960950      -0.00000000       0.01086023       0.00000000
P        0.05789414       1.71309085       3.85960950       0.00000000      -0.01086023       0.00000000
4
Lattice="3.414865 0.0 0.0 0.0 3.871943 0.0 -0.07719219 0.0 5.146146" Properties=species:S:1:pos:R:3:forces:R:3 energy=-15.58135718 stress="0.0016790430437418102 -0.0 -0.0036921739795742754 -0.0 0.0011575466686525252 -0.0 -0.0036921739795742754 -0.0 -0.0028619707093905937" free_energy=-15.58529931 pbc="T T T"
P       -0.01929805       2.15885215       1.28653650       0.00000000       0.01086115      -0.00000000
P        1.68813445       3.64906235       1.28653650       0.00000000      -0.01086115      -0.00000000
P        1.64953836       0.22288065       3.85960950       0.00000000       0.01086115       0.00000000
P       -0.05789414       1.71309085       3.85960950      -0.00000000      -0.01086115       0.00000000
4
Lattice="3.414865 0.0 0.0 0.0 3.871943 0.0 0.0 0.0 5.146146" Properties=species:S:1:pos:R:3:forces:R:3 energy=-15.58194838 stress="0.0015195699203152421 -0.0014348668992886105 -0.0 -0.0014348668992886105 0.001071093391153795 -0.0 -0.0 -0.0 -0.002882176509163053" free_energy=-15.58628326 pbc="T T T"
P        0.01500000       2.15885215       1.28653650      -0.11519854       0.00748257       0.00000000
P        1.70743250       3.64906235       1.28653650       0.08757592      -0.00750107       0.00000000
P        1.70743250       0.22288065       3.85960950       0.00769712       0.01043090       0.00000000
P        0.00000000       1.71309085       3.85960950       0.01992550      -0.01041240       0.00000000
4
Lattice="3.414865 0.0 0.0 0.0 3.871943 0.0 0.0 0.0 5.146146" Properties=species:S:1:pos:R:3:forces:R:3 energy=-15.58194839 stress="0.0015195873341257034 0.0014346930670179458 -0.0 0.0014346930670179458 0.0010711016986024418 -0.0 -0.0 -0.0 -0.0028822118361047054" free_energy=-15.58628327 pbc="T T T"
P       -0.01500000       2.15885215       1.28653650       0.11519377       0.00748300       0.00000000
P        1.70743250       3.64906235       1.28653650      -0.08757180      -0.00750137       0.00000000
P        1.70743250       0.22288065       3.85960950      -0.00769323       0.01043077       0.00000000
P        0.00000000       1.71309085       3.85960950      -0.01992874      -0.01041240       0.00000000
4
Lattice="3.414865 0.0 0.0 0.0 3.871943 0.0 0.0 0.0 5.146146" Properties=species:S:1:pos:R:3:forces:R:3 energy=-15.58213824 stress="0.0007557491379417338 -0.0 -0.0 -0.0 -0.0017858335484706633 -0.0 -0.0 -0.0 -0.003526759863203217" free_energy=-15.58640079 pbc="T T T"
P        0.00000000       2.17385214       1.28653650       0.00000000      -0.15621888       0.00000000
P        1.70743250       3.64906235       1.28653650       0.00000000       0.12973231       0.00000000
P        1.70743250       0.22288065       3.85960950       0.00000000       0.02346716       0.00000000
P        0.00000000       1.71309085       3.85960950       0.00000000       0.00301941       0.00000000
4
Lattice="3.414865 0.0 0.0 0.0 3.871943 0.0 0.0 0.0 5.146146" Properties=species:S:1:pos:R:3:forces:R:3 energy=-15.58098835 stress="0.0022766232215888295 -0.0 -0.0 -0.0 0.003990358869927657 -0.0 -0.0 -0.0 -0.002148018330389558" free_energy=-15.58541727 pbc="T T T"
P        0.00000000       2.14385217       1.28653650       0.00000000       0.17078050       0.00000000
P        1.70743250       3.64906235       1.28653650       0.00000000      -0.14413516       0.00000000
P        1.70743250       0.22288065       3.85960950       0.00000000      -0.00258846       0.00000000
P        0.00000000       1.71309085       3.85960950       0.00000000      -0.02405688       0.00000000
4
Lattice="3.414865 0.0 0.0 0.0 3.871943 0.0 0.0 0.0 5.146146" Properties=species:S:1:pos:R:3:forces:R:3 energy=-15.58278733 stress="0.001566621474445622 -0.0 -0.0 -0.0 0.0011194042696144677 -0.0012187598886725685 -0.0 -0.0012187598886725685 -0.0028958674154684057" free_energy=-15.58710312 pbc="T T T"
P        0.00000000       2.15885215       1.30153649       0.00000000       0.00984810      -0.00476958
P        1.70743250       3.64906235       1.28653650       0.00000000      -0.01012737       0.03481234
P        1.70743250       0.22288065       3.85960950       0.00000000       0.00988102      -0.00325495
P        0.00000000       1.71309085       3.85960950       0.00000000      -0.00960175      -0.02678780
4
Lattice="3.414865 0.0 0.0 0.0 3.871943 0.0 0.0 0.0 5.146146" Properties=species:S:1:pos:R:3:forces:R:3 energy=-15.58278733 stress="0.0015666488996367212 -0.0 -0.0 -0.0 0.0011194171770553402 0.0012189197961363736 -0.0 0.0012189197961363736 -0.0028958303159381618" free_energy=-15.58710313 pbc="T T T"
P        0.00000000       2.15885215       1.27153651       0.00000000       0.00984805       0.00477781
P        1.70743250       3.64906235       1.28653650       0.00000000      -0.01012744      -0.03480448
P        1.70743250       0.22288065       3.85960950       0.00000000       0.00988077       0.00324491
P        0.00000000       1.71309085       3.85960950       0.00000000      -0.00960137       0.02678176
