1
Lattice="20.0 0.0 0.0 0.0 20.0 0.0 0.0 0.0 20.0" Properties=species:S:1:pos:R:3:forces:R:3 energy=1.2712451 stress="-4.6249582622794945e-09 0.0 -0.0 0.0 -4.6249582622794945e-09 0.0 -0.0 0.0 -4.6249582622794945e-09" free_energy=1.10198823 pbc="T T T"
P       10.00000000      10.00000000      10.00000000       0.00000000       0.00000000       0.00000000
1
Lattice="20.3 0.0 0.0 0.0 20.0 0.0 0.0 0.0 20.0" Properties=species:S:1:pos:R:3:forces:R:3 energy=1.27124248 stress="-5.317765775252536e-09 -0.0 0.0 -0.0 -2.175790081282904e-08 -0.0 0.0 -0.0 -2.175790081282904e-08" free_energy=1.1019856 pbc="T T T"
P       10.15000000      10.00000000      10.00000000       0.00000000       0.00000000       0.00000000
1
Lattice="19.7 0.0 0.0 0.0 20.0 0.0 0.0 0.0 20.0" Properties=species:S:1:pos:R:3:forces:R:3 energy=1.27124092 stress="5.3321212462420677e-08 -0.0 -0.0 -0.0 2.5234421395946012e-08 -0.0 -0.0 -0.0 2.5234421395946012e-08" free_energy=1.10198405 pbc="T T T"
P        9.85000000      10.00000000      10.00000000       0.00000000       0.00000000       0.00000000
1
Lattice="20.0 0.0 0.0 0.0 20.3 0.0 0.0 0.0 20.0" Properties=species:S:1:pos:R:3:forces:R:3 energy=1.27124397 stress="-2.0253697113491175e-08 0.0 -0.0 0.0 -1.6290338818555303e-09 -0.0 -0.0 -0.0 -2.0253697113491175e-08" free_energy=1.10198709 pbc="T T T"
P       10.00000000      10.15000000      10.00000000       0.00000000       0.00000000       0.00000000
1
Lattice="20.0 0.0 0.0 0.0 19.7 0.0 0.0 0.0 20.0" Properties=species:S:1:pos:R:3:forces:R:3 energy=1.27124117 stress="2.5833606272030807e-08 -0.0 0.0 -0.0 5.3071552097385346e-08 0.0 0.0 0.0 2.5833606272030807e-08" free_energy=1.1019843 pbc="T T T"
P       10.00000000       9.85000000      10.00000000       0.00000000       0.00000000       0.00000000
1
Lattice="20.0 0.0 0.0 0.0 20.0 0.0 0.0 0.0 20.3" Properties=species:S:1:pos:R:3:forces:R:3 energy=1.27124393 stress="-2.0316112204750006e-08 0.0 0.0 0.0 -2.0316112204750006e-08 -0.0 0.0 -0.0 -1.5978263362261143e-09" free_energy=1.10198706 pbc="T T T"
P       10.00000000      10.00000000      10.15000000       0.00000000       0.00000000       0.00000000
1
Lattice="20.0 0.0 0.0 0.0 20.0 0.0 0.0 0.0 19.7" Properties=species:S:1:pos:R:3:forces:R:3 energy=1.27124093 stress="2.542166666972251e-08 -0.0 0.0 -0.0 2.542166666972251e-08 -0.0 0.0 -0.0 5.3208865298154774e-08" free_energy=1.10198405 pbc="T T T"
P       10.00000000      10.00000000       9.85000000       0.00000000       0.00000000       0.00000000
1
Lattice="20.0 0.3 0.0 0.0 20.0 0.0 0.0 0.0 20.0" Properties=species:S:1:pos:R:3:forces:R:3 energy=1.27125744 stress="-1.0872708897288635e-08 6.381943081215632e-08 -0.0 6.381943081215632e-08 -8.563350520711831e-09 -0.0 -0.0 -0.0 -2.1526964975171357e-08" free_energy=1.10200056 pbc="T T T"
P       10.00000000      10.15000000      10.00000000       0.00000000       0.00000000       0.00000000
1
Lattice="20.0 -0.3 0.0 0.0 20.0 0.0 0.0 0.0 20.0" Properties=species:S:1:pos:R:3:forces:R:3 energy=1.27125163 stress="-3.3704149279769594e-09 -6.905605696877237e-08 -0.0 -6.905605696877237e-08 -7.489810951059909e-10 -0.0 -0.0 -0.0 -3.807320566788788e-09" free_energy=1.10199476 pbc="T T T"
P       10.00000000       9.85000000      10.00000000       0.00000000       0.00000000       0.00000000
1
Lattice="20.0 0.0 0.0 0.0 20.0 0.3 0.0 0.0 20.0" Properties=species:S:1:pos:R:3:forces:R:3 energy=1.27124989 stress="-4.094429986579417e-09 -0.0 -0.0 -0.0 -2.896060234409832e-09 7.010463050192075e-08 -0.0 7.010463050192075e-08 -2.995924380423964e-10" free_energy=1.10199301 pbc="T T T"
P       10.00000000      10.00000000      10.15000000       0.00000000       0.00000000       0.00000000
1
Lattice="20.0 0.0 0.0 0.0 20.0 -0.3 0.0 0.0 20.0" Properties=species:S:1:pos:R:3:forces:R:3 energy=1.27124972 stress="-4.687373353538327e-09 -0.0 -0.0 -0.0 -3.2206187089557612e-09 -7.03106003030749e-08 -0.0 -7.03106003030749e-08 -5.242867665741937e-10" free_energy=1.10199284 pbc="T T T"
P       10.00000000      10.00000000       9.85000000       0.00000000       0.00000000       0.00000000
1
Lattice="20.0 0.0 0.0 0.0 20.0 0.0 0.3 0.0 20.0" Properties=species:S:1:pos:R:3:forces:R:3 energy=1.27124953 stress="-9.362263688824889e-10 -0.0 7.047287954034787e-08 -0.0 -5.01817333721014e-09 -0.0 7.047287954034787e-08 -0.0 -3.5639017108793406e-09" free_energy=1.10199266 pbc="T T T"
P       10.15000000      10.00000000      10.00000000       0.00000000       0.00000000       0.00000000
1
Lattice="20.0 0.0 0.0 0.0 20.0 0.0 -0.3 0.0 20.0" Properties=species:S:1:pos:R:3:forces:R:3 energy=1.27124962 stress="-7.73947131609524e-10 -0.0 -7.039798143083726e-08 -0.0 -4.787237499552459e-09 -0.0 -7.039798143083726e-08 -0.0 -3.3828979462287257e-09" free_energy=1.10199275 pbc="T T T"
P        9.85000000      10.00000000      10.00000000       0.00000000       0.00000000       0.00000000
1
Lattice="20.0 0.0 0.0 0.0 20.0 0.0 0.0 0.0 20.0" Properties=species:S:1:pos:R:3:forces:R:3 energy=1.2712575 stress="7.265116622528113e-09 -0.0 -0.0 -0.0 7.265116622528113e-09 0.0 -0.0 0.0 7.265116622528113e-09" free_energy=1.10200062 pbc="T T T"
P       10.01500000      10.00000000      10.00000000       0.00000000      -0.00000000      -0.00000000
1
Lattice="20.0 0.0 0.0 0.0 20.0 0.0 0.0 0.0 20.0" Properties=species:S:1:pos:R:3:forces:R:3 energy=1.27125553 stress="5.923192160463212e-09 -0.0 -0.0 -0.0 5.923192160463212e-09 0.0 -0.0 0.0 5.923192160463212e-09" free_energy=1.10199866 pbc="T T T"
P        9.98500000      10.00000000      10.00000000      -0.00000000      -0.00000000       0.00000000
